Circuit: * \\Mac\Home\Desktop\fuzz\ltspice\Fuzz Test.asc

Direct Newton iteration for .op point succeeded.

Date: Sun Mar 17 23:38:31 2024
Total elapsed time: 1.080 seconds.

tnom = 27
temp = 27
method = trap
totiter = 61610
traniter = 61606
tranpoints = 30804
accept = 28316
rejected = 2488
matrix size = 28
fillins = 2
solver = Normal
Avg thread counts: 1.0/1.0/1.0/1.0
Matrix Compiler1:      64 opcodes  0.9/[0.7]/0.9
Matrix Compiler2: off  [0.4]/0.5/18.1

