Circuit: * C:\Users\yangshijie\Desktop\fuzz\Fuzz.asc

Warning: Multiple definitions of model "umt3906" Type: BJT
Warning: Multiple definitions of model "umt3904" Type: BJT
Warning: Multiple definitions of model "umt2907a" Type: BJT
Warning: Multiple definitions of model "ssta56" Type: BJT
Warning: Multiple definitions of model "ssta06" Type: BJT
Warning: Multiple definitions of model "sst4403" Type: BJT
Warning: Multiple definitions of model "sst4401" Type: BJT
Warning: Multiple definitions of model "sst3906" Type: BJT
Warning: Multiple definitions of model "sst3904" Type: BJT
Warning: Multiple definitions of model "sst2907a" Type: BJT
Warning: Multiple definitions of model "sst2222a" Type: BJT
Warning: Multiple definitions of model "qsx2" Type: BJT
Warning: Multiple definitions of model "qsx1" Type: BJT
Warning: Multiple definitions of model "qst3" Type: BJT
Warning: Multiple definitions of model "qst2" Type: BJT
Warning: Multiple definitions of model "bss64a" Type: BJT
Warning: Multiple definitions of model "bss63a" Type: BJT
Warning: Multiple definitions of model "bss5130a" Type: BJT
Warning: Multiple definitions of model "bss4130a" Type: BJT
Warning: Multiple definitions of model "bcx19" Type: BJT
Warning: Multiple definitions of model "bcx17" Type: BJT
Warning: Multiple definitions of model "bc858bw" Type: BJT
Warning: Multiple definitions of model "bc858b" Type: BJT
Warning: Multiple definitions of model "bc857bt116" Type: BJT
Warning: Multiple definitions of model "bc857b" Type: BJT
Warning: Multiple definitions of model "bc848bw" Type: BJT
Warning: Multiple definitions of model "bc848b" Type: BJT
Warning: Multiple definitions of model "bc847c" Type: BJT
Warning: Multiple definitions of model "bc847bt116" Type: BJT
Warning: Multiple definitions of model "bc847b" Type: BJT
Warning: Multiple definitions of model "bc817-40t116" Type: BJT
Warning: Multiple definitions of model "bc817-25t116" Type: BJT
Warning: Multiple definitions of model "bc817-16" Type: BJT
Warning: Multiple definitions of model "bc807-40t116" Type: BJT
Warning: Multiple definitions of model "bc807-25t116" Type: BJT
Warning: Multiple definitions of model "bc807-16" Type: BJT
Warning: Multiple definitions of model "2sd2707" Type: BJT
Warning: Multiple definitions of model "2sd2704k" Type: BJT
Warning: Multiple definitions of model "2sd2703" Type: BJT
Warning: Multiple definitions of model "2sd2702" Type: BJT
Warning: Multiple definitions of model "2sd2701" Type: BJT
Warning: Multiple definitions of model "2sd2700" Type: BJT
Warning: Multiple definitions of model "2sd2696" Type: BJT
Warning: Multiple definitions of model "2sd2675" Type: BJT
Warning: Multiple definitions of model "2sd2674" Type: BJT
Warning: Multiple definitions of model "2sd2673" Type: BJT
Warning: Multiple definitions of model "2sd2672" Type: BJT
Warning: Multiple definitions of model "2sd2671" Type: BJT
Warning: Multiple definitions of model "2sd2670" Type: BJT
Warning: Multiple definitions of model "2sd2661" Type: BJT
Warning: Multiple definitions of model "2sd2657k" Type: BJT
Warning: Multiple definitions of model "2sd2657" Type: BJT
Warning: Multiple definitions of model "2sd2656" Type: BJT
Warning: Multiple definitions of model "2sd2654" Type: BJT
Warning: Multiple definitions of model "2sd2653k" Type: BJT
Warning: Multiple definitions of model "2sd2653" Type: BJT
Warning: Multiple definitions of model "2sd2652" Type: BJT
Warning: Multiple definitions of model "2sd2537" Type: BJT
Warning: Multiple definitions of model "2sd2444k" Type: BJT
Warning: Multiple definitions of model "2sd2351" Type: BJT
Warning: Multiple definitions of model "2sd2226k" Type: BJT
Warning: Multiple definitions of model "2sd2153" Type: BJT
Warning: Multiple definitions of model "2sd2114k" Type: BJT
Warning: Multiple definitions of model "2sd1949" Type: BJT
Warning: Multiple definitions of model "2sd1782k" Type: BJT
Warning: Multiple definitions of model "2sd1781k" Type: BJT
Warning: Multiple definitions of model "2sd1757k" Type: BJT
Warning: Multiple definitions of model "2sd1484k" Type: BJT
Warning: Multiple definitions of model "2scr587d3" Type: BJT
Warning: Multiple definitions of model "2scr586j" Type: BJT
Warning: Multiple definitions of model "2scr586d3" Type: BJT
Warning: Multiple definitions of model "2scr583d3" Type: BJT
Warning: Multiple definitions of model "2scr582d3" Type: BJT
Warning: Multiple definitions of model "2scr574d3" Type: BJT
Warning: Multiple definitions of model "2scr573d3" Type: BJT
Warning: Multiple definitions of model "2scr572d3" Type: BJT
Warning: Multiple definitions of model "2scr567f3" Type: BJT
Warning: Multiple definitions of model "2scr564f3" Type: BJT
Warning: Multiple definitions of model "2scr563f3" Type: BJT
Warning: Multiple definitions of model "2scr562f3" Type: BJT
Warning: Multiple definitions of model "2scr554r" Type: BJT
Warning: Multiple definitions of model "2scr554p5" Type: BJT
Warning: Multiple definitions of model "2scr554p" Type: BJT
Warning: Multiple definitions of model "2scr553r" Type: BJT
Warning: Multiple definitions of model "2scr553p5" Type: BJT
Warning: Multiple definitions of model "2scr553p" Type: BJT
Warning: Multiple definitions of model "2scr552p5" Type: BJT
Warning: Multiple definitions of model "2scr552p" Type: BJT
Warning: Multiple definitions of model "2scr544r" Type: BJT
Warning: Multiple definitions of model "2scr544p5" Type: BJT
Warning: Multiple definitions of model "2scr544p" Type: BJT
Warning: Multiple definitions of model "2scr543r" Type: BJT
Warning: Multiple definitions of model "2scr542p" Type: BJT
Warning: Multiple definitions of model "2scr542f3" Type: BJT
Warning: Multiple definitions of model "2scr533p5" Type: BJT
Warning: Multiple definitions of model "2scr533p" Type: BJT
Warning: Multiple definitions of model "2scr523ub" Type: BJT
Warning: Multiple definitions of model "2scr523m" Type: BJT
Warning: Multiple definitions of model "2scr523eb" Type: BJT
Warning: Multiple definitions of model "2scr522ub" Type: BJT
Warning: Multiple definitions of model "2scr522m" Type: BJT
Warning: Multiple definitions of model "2scr522eb" Type: BJT
Warning: Multiple definitions of model "2scr514r" Type: BJT
Warning: Multiple definitions of model "2scr514p5" Type: BJT
Warning: Multiple definitions of model "2scr514p" Type: BJT
Warning: Multiple definitions of model "2scr513r" Type: BJT
Warning: Multiple definitions of model "2scr513p5" Type: BJT
Warning: Multiple definitions of model "2scr513p" Type: BJT
Warning: Multiple definitions of model "2scr512r" Type: BJT
Warning: Multiple definitions of model "2scr512p5" Type: BJT
Warning: Multiple definitions of model "2scr512p" Type: BJT
Warning: Multiple definitions of model "2scr502ub" Type: BJT
Warning: Multiple definitions of model "2scr502u3" Type: BJT
Warning: Multiple definitions of model "2scr502eb" Type: BJT
Warning: Multiple definitions of model "2scr375p" Type: BJT
Warning: Multiple definitions of model "2scr375p" Type: BJT
Warning: Multiple definitions of model "2scr372p5" Type: BJT
Warning: Multiple definitions of model "2scr372p" Type: BJT
Warning: Multiple definitions of model "2scr346p" Type: BJT
Warning: Multiple definitions of model "2scr341q" Type: BJT
Warning: Multiple definitions of model "2scr293p5" Type: BJT
Warning: Multiple definitions of model "2sc5876u3" Type: BJT
Warning: Multiple definitions of model "2sc5866" Type: BJT
Warning: Multiple definitions of model "2sc5824" Type: BJT
Warning: Multiple definitions of model "2sc5663" Type: BJT
Warning: Multiple definitions of model "2sc5662" Type: BJT
Warning: Multiple definitions of model "2sc5661" Type: BJT
Warning: Multiple definitions of model "2sc5658" Type: BJT
Warning: Multiple definitions of model "2sc5585" Type: BJT
Warning: Multiple definitions of model "2sc4774" Type: BJT
Warning: Multiple definitions of model "2sc4726" Type: BJT
Warning: Multiple definitions of model "2sc4725" Type: BJT
Warning: Multiple definitions of model "2sc4713k" Type: BJT
Warning: Multiple definitions of model "2sc4618" Type: BJT
Warning: Multiple definitions of model "2sc4617eb" Type: BJT
Warning: Multiple definitions of model "2sc4617" Type: BJT
Warning: Multiple definitions of model "2sc4102u3" Type: BJT
Warning: Multiple definitions of model "2sc4098" Type: BJT
Warning: Multiple definitions of model "2sc4097" Type: BJT
Warning: Multiple definitions of model "2sc4083" Type: BJT
Warning: Multiple definitions of model "2sc4082" Type: BJT
Warning: Multiple definitions of model "2sc4081ub" Type: BJT
Warning: Multiple definitions of model "2sc4081u3" Type: BJT
Warning: Multiple definitions of model "2sc4061k" Type: BJT
Warning: Multiple definitions of model "2sc3906k" Type: BJT
Warning: Multiple definitions of model "2sc3838k" Type: BJT
Warning: Multiple definitions of model "2sc3837k" Type: BJT
Warning: Multiple definitions of model "2sc2412k" Type: BJT
Warning: Multiple definitions of model "2sc2411k" Type: BJT
Warning: Multiple definitions of model "2sb1732" Type: BJT
Warning: Multiple definitions of model "2sb1731" Type: BJT
Warning: Multiple definitions of model "2sb1730" Type: BJT
Warning: Multiple definitions of model "2sb1710" Type: BJT
Warning: Multiple definitions of model "2sb1709" Type: BJT
Warning: Multiple definitions of model "2sb1708" Type: BJT
Warning: Multiple definitions of model "2sb1707" Type: BJT
Warning: Multiple definitions of model "2sb1706" Type: BJT
Warning: Multiple definitions of model "2sb1705" Type: BJT
Warning: Multiple definitions of model "2sb1697" Type: BJT
Warning: Multiple definitions of model "2sb1695k" Type: BJT
Warning: Multiple definitions of model "2sb1695" Type: BJT
Warning: Multiple definitions of model "2sb1694" Type: BJT
Warning: Multiple definitions of model "2sb1690k" Type: BJT
Warning: Multiple definitions of model "2sb1690" Type: BJT
Warning: Multiple definitions of model "2sb1689" Type: BJT
Warning: Multiple definitions of model "2sb1590k" Type: BJT
Warning: Multiple definitions of model "2sb1427" Type: BJT
Warning: Multiple definitions of model "2sb1198k" Type: BJT
Warning: Multiple definitions of model "2sb1197k" Type: BJT
Warning: Multiple definitions of model "2sar587d3" Type: BJT
Warning: Multiple definitions of model "2sar586j" Type: BJT
Warning: Multiple definitions of model "2sar586d3" Type: BJT
Warning: Multiple definitions of model "2sar583d3" Type: BJT
Warning: Multiple definitions of model "2sar582d3" Type: BJT
Warning: Multiple definitions of model "2sar574d3" Type: BJT
Warning: Multiple definitions of model "2sar573d3" Type: BJT
Warning: Multiple definitions of model "2sar572d3" Type: BJT
Warning: Multiple definitions of model "2sar567f3" Type: BJT
Warning: Multiple definitions of model "2sar564f3" Type: BJT
Warning: Multiple definitions of model "2sar563f3" Type: BJT
Warning: Multiple definitions of model "2sar562f3" Type: BJT
Warning: Multiple definitions of model "2sar554r" Type: BJT
Warning: Multiple definitions of model "2sar554p5" Type: BJT
Warning: Multiple definitions of model "2sar554p" Type: BJT
Warning: Multiple definitions of model "2sar553r" Type: BJT
Warning: Multiple definitions of model "2sar553p5" Type: BJT
Warning: Multiple definitions of model "2sar553p" Type: BJT
Warning: Multiple definitions of model "2sar552p5" Type: BJT
Warning: Multiple definitions of model "2sar552p" Type: BJT
Warning: Multiple definitions of model "2sar544r" Type: BJT
Warning: Multiple definitions of model "2sar544p5" Type: BJT
Warning: Multiple definitions of model "2sar544p" Type: BJT
Warning: Multiple definitions of model "2sar543r" Type: BJT
Warning: Multiple definitions of model "2sar542p" Type: BJT
Warning: Multiple definitions of model "2sar542f3" Type: BJT
Warning: Multiple definitions of model "2sar533p5" Type: BJT
Warning: Multiple definitions of model "2sar533p" Type: BJT
Warning: Multiple definitions of model "2sar523ub" Type: BJT
Warning: Multiple definitions of model "2sar523m" Type: BJT
Warning: Multiple definitions of model "2sar523eb" Type: BJT
Warning: Multiple definitions of model "2sar522ub" Type: BJT
Warning: Multiple definitions of model "2sar522m" Type: BJT
Warning: Multiple definitions of model "2sar522eb" Type: BJT
Warning: Multiple definitions of model "2sar514r" Type: BJT
Warning: Multiple definitions of model "2sar514p5" Type: BJT
Warning: Multiple definitions of model "2sar514p" Type: BJT
Warning: Multiple definitions of model "2sar513r" Type: BJT
Warning: Multiple definitions of model "2sar513p5" Type: BJT
Warning: Multiple definitions of model "2sar513p" Type: BJT
Warning: Multiple definitions of model "2sar512r" Type: BJT
Warning: Multiple definitions of model "2sar512p5" Type: BJT
Warning: Multiple definitions of model "2sar512p" Type: BJT
Warning: Multiple definitions of model "2sar502ub" Type: BJT
Warning: Multiple definitions of model "2sar502u3" Type: BJT
Warning: Multiple definitions of model "2sar502eb" Type: BJT
Warning: Multiple definitions of model "2sar375p5" Type: BJT
Warning: Multiple definitions of model "2sar372p5" Type: BJT
Warning: Multiple definitions of model "2sar340q" Type: BJT
Warning: Multiple definitions of model "2sar340p" Type: BJT
Warning: Multiple definitions of model "2sar293p5" Type: BJT
Warning: Multiple definitions of model "2sar293p" Type: BJT
Warning: Multiple definitions of model "2sa2119k" Type: BJT
Warning: Multiple definitions of model "2sa2094" Type: BJT
Warning: Multiple definitions of model "2sa2088u3" Type: BJT
Warning: Multiple definitions of model "2sa2071p5" Type: BJT
Warning: Multiple definitions of model "2sa2030" Type: BJT
Warning: Multiple definitions of model "2sa2029" Type: BJT
Warning: Multiple definitions of model "2sa2018" Type: BJT
Warning: Multiple definitions of model "2sa1774eb" Type: BJT
Warning: Multiple definitions of model "2sa1774" Type: BJT
Warning: Multiple definitions of model "2sa1579u3" Type: BJT
Warning: Multiple definitions of model "2sa1577" Type: BJT
Warning: Multiple definitions of model "2sa1576ub" Type: BJT
Warning: Multiple definitions of model "2sa1576u3" Type: BJT
Warning: Multiple definitions of model "2sa1514k" Type: BJT
Warning: Multiple definitions of model "2sa1037ak" Type: BJT
Warning: Multiple definitions of model "2sa1036k" Type: BJT
Warning: Multiple definitions of model "ls3550c" Type: BJT
Warning: Multiple definitions of model "ls3550b" Type: BJT
Warning: Multiple definitions of model "ls3550a" Type: BJT
Warning: Multiple definitions of model "ls3250c" Type: BJT
Warning: Multiple definitions of model "ls3250b" Type: BJT
Warning: Multiple definitions of model "ls3250a" Type: BJT
Warning: Multiple definitions of model "ls358" Type: BJT
Warning: Multiple definitions of model "ls352" Type: BJT
Warning: Multiple definitions of model "ls351" Type: BJT
Warning: Multiple definitions of model "ls350" Type: BJT
Warning: Multiple definitions of model "ls313" Type: BJT
Warning: Multiple definitions of model "ls312" Type: BJT
Warning: Multiple definitions of model "ls311" Type: BJT
Warning: Multiple definitions of model "ls310" Type: BJT
Warning: Multiple definitions of model "ls303" Type: BJT
Warning: Multiple definitions of model "ls302" Type: BJT
Warning: Multiple definitions of model "ls301" Type: BJT
Warning: Multiple definitions of model "mat-02" Type: BJT
Warning: Multiple definitions of model "d45h11" Type: BJT
Warning: Multiple definitions of model "bc856b" Type: BJT
Warning: Multiple definitions of model "bc556b" Type: BJT
Warning: Multiple definitions of model "bc846b" Type: BJT
Warning: Multiple definitions of model "bc546b" Type: BJT
Warning: Multiple definitions of model "bc327-40" Type: BJT
Warning: Multiple definitions of model "bc327-25" Type: BJT
Warning: Multiple definitions of model "bc807-40" Type: BJT
Warning: Multiple definitions of model "bc807-25" Type: BJT
Warning: Multiple definitions of model "bc857c" Type: BJT
Warning: Multiple definitions of model "bc857b" Type: BJT
Warning: Multiple definitions of model "bc857a" Type: BJT
Warning: Multiple definitions of model "bc557c" Type: BJT
Warning: Multiple definitions of model "bc557b" Type: BJT
Warning: Multiple definitions of model "bc337-40" Type: BJT
Warning: Multiple definitions of model "bc337-25" Type: BJT
Warning: Multiple definitions of model "bc817-40" Type: BJT
Warning: Multiple definitions of model "bc817-25" Type: BJT
Warning: Multiple definitions of model "bc847c" Type: BJT
Warning: Multiple definitions of model "bc847b" Type: BJT
Warning: Multiple definitions of model "bc847a" Type: BJT
Warning: Multiple definitions of model "bc547c" Type: BJT
Warning: Multiple definitions of model "bc547b" Type: BJT
Warning: Multiple definitions of model "2n3019" Type: BJT
Warning: Multiple definitions of model "2n3055" Type: BJT
Warning: Multiple definitions of model "2n5771" Type: BJT
Warning: Multiple definitions of model "2n5769" Type: BJT
Warning: Multiple definitions of model "2n2369" Type: BJT
Warning: Multiple definitions of model "2n5401" Type: BJT
Warning: Multiple definitions of model "2n5550" Type: BJT
Warning: Multiple definitions of model "2n4403" Type: BJT
Warning: Multiple definitions of model "2n4401" Type: BJT
Warning: Multiple definitions of model "2n2905a" Type: BJT
Warning: Multiple definitions of model "2n2219a" Type: BJT
Warning: Multiple definitions of model "2n5087" Type: BJT
Warning: Multiple definitions of model "2n5210" Type: BJT
Warning: Multiple definitions of model "2n5089" Type: BJT
Warning: Multiple definitions of model "2n3391a" Type: BJT
Warning: Multiple definitions of model "2n4126" Type: BJT
Warning: Multiple definitions of model "2n4124" Type: BJT
Warning: Multiple definitions of model "ztx1048a" Type: BJT
Warning: Multiple definitions of model "ztx849" Type: BJT
Warning: Multiple definitions of model "fzt849" Type: BJT
Warning: Multiple definitions of model "2n3906" Type: BJT
Warning: Multiple definitions of model "2n3904" Type: BJT
Warning: Multiple definitions of model "2n2907" Type: BJT
Warning: Multiple definitions of model "2n2222" Type: BJT
Direct Newton iteration for .op point succeeded.

Date: Sun Mar 10 22:03:53 2024
Total elapsed time: 37.010 seconds.

tnom = 27
temp = 27
method = modified trap
totiter = 2540404
traniter = 2540392
tranpoints = 1225570
accept = 1180557
rejected = 45013
matrix size = 29
fillins = 4
solver = Normal
Avg thread counts: 1.0/1.0/1.0/1.0
Matrix Compiler1:      75 opcodes  1.2/[0.8]/1.0
Matrix Compiler2: off  [0.5]/0.6/46.9

